Version 4
SHEET 1 880 840
WIRE -112 128 -320 128
WIRE 128 128 16 128
WIRE -320 144 -320 128
WIRE 128 192 128 128
WIRE 160 192 128 192
WIRE 192 192 160 192
WIRE 288 192 256 192
WIRE 336 192 288 192
WIRE 544 192 464 192
WIRE 288 208 288 192
WIRE -112 272 -192 272
WIRE 128 272 128 192
WIRE 128 272 16 272
WIRE -192 288 -192 272
WIRE 288 320 288 288
WIRE -320 400 -320 224
WIRE -192 400 -192 368
WIRE 544 400 544 192
WIRE 592 400 544 400
WIRE 688 400 592 400
WIRE 720 400 688 400
WIRE 592 416 592 400
WIRE 688 416 688 400
WIRE -112 528 -320 528
WIRE 128 528 16 528
WIRE 592 528 592 496
WIRE 688 528 688 480
WIRE -320 544 -320 528
WIRE 128 592 128 528
WIRE 160 592 128 592
WIRE 208 592 160 592
WIRE 288 592 272 592
WIRE 336 592 288 592
WIRE 544 592 544 400
WIRE 544 592 464 592
WIRE 288 608 288 592
WIRE -112 672 -192 672
WIRE 128 672 128 592
WIRE 128 672 16 672
WIRE -192 688 -192 672
WIRE 288 720 288 688
WIRE -320 800 -320 624
WIRE -192 800 -192 768
FLAG -192 400 0
FLAG -320 400 0
FLAG -320 128 In1
IOPIN -320 128 In
FLAG -192 272 In2
IOPIN -192 272 In
FLAG -192 800 0
FLAG -320 800 0
FLAG -320 528 In3
IOPIN -320 528 In
FLAG -192 672 In4
IOPIN -192 672 In
FLAG 592 528 0
FLAG 720 400 Out
IOPIN 720 400 Out
FLAG 688 528 0
FLAG 288 320 0
FLAG 288 720 0
FLAG 160 192 A
FLAG 160 592 B
SYMBOL memristor_Yakopcic -16 192 R270
SYMATTR InstName U1
SYMBOL memristor_Yakopcic -80 208 R90
SYMATTR InstName U2
SYMBOL voltage -192 272 R0
WINDOW 123 0 0 Left 0
WINDOW 39 0 0 Left 0
SYMATTR InstName V1
SYMATTR Value PULSE(1 0 0 1p 1p 2m 4m)
SYMBOL voltage -320 128 R0
WINDOW 123 0 0 Left 0
WINDOW 39 0 0 Left 0
SYMATTR InstName V2
SYMATTR Value PULSE(1 0 0 1p 1p 1m 2m)
SYMBOL memristor_Yakopcic -16 592 R270
SYMATTR InstName U3
SYMBOL memristor_Yakopcic -80 608 R90
SYMATTR InstName U4
SYMBOL voltage -192 672 R0
WINDOW 123 0 0 Left 0
WINDOW 39 0 0 Left 0
SYMATTR InstName V3
SYMATTR Value PULSE(1 0 0 1p 1p 8m 16m)
SYMBOL voltage -320 528 R0
WINDOW 123 0 0 Left 0
WINDOW 39 0 0 Left 0
SYMATTR InstName V4
SYMATTR Value PULSE(1 0 0 1p 1p 4m 8m)
SYMBOL memristor_Yakopcic 432 256 R270
SYMATTR InstName U5
SYMBOL memristor_Yakopcic 368 528 R90
SYMATTR InstName U6
SYMBOL res 576 400 R0
SYMATTR InstName R3
SYMATTR Value 1e15
SYMBOL cap 672 416 R0
SYMATTR InstName C1
SYMATTR Value 1f
SYMBOL diode 192 208 R270
WINDOW 0 32 32 VTop 2
WINDOW 3 0 32 VBottom 2
SYMATTR InstName D1
SYMATTR Value 1N4148
SYMBOL diode 208 608 R270
WINDOW 0 32 32 VTop 2
WINDOW 3 0 32 VBottom 2
SYMATTR InstName D2
SYMATTR Value 1N4148
SYMBOL res 272 192 R0
SYMATTR InstName R1
SYMATTR Value 1e15
SYMBOL res 272 592 R0
SYMATTR InstName R2
SYMATTR Value 1e15
TEXT -506 464 Left 2 !.tran 0 16m 0 1u
