Version 4
SHEET 1 880 680
WIRE 192 -64 -16 -64
WIRE -16 -48 -16 -64
WIRE -16 64 -16 32
WIRE 192 96 192 64
WIRE 368 96 192 96
WIRE 432 96 368 96
WIRE 192 128 192 96
WIRE 272 176 192 176
WIRE 144 208 -16 208
WIRE 368 208 368 96
WIRE -16 224 -16 208
WIRE 192 256 192 224
WIRE 272 304 272 176
WIRE 272 304 192 304
WIRE 144 336 64 336
WIRE 64 352 64 336
WIRE 192 400 192 352
WIRE 272 400 272 304
WIRE 272 400 192 400
WIRE -16 464 -16 304
WIRE 64 464 64 432
WIRE 192 464 192 400
WIRE 368 464 368 272
FLAG -16 64 0
FLAG -16 464 0
FLAG 64 464 0
FLAG 192 464 0
FLAG 64 336 A
IOPIN 64 336 In
FLAG -16 208 B
IOPIN -16 208 In
FLAG 432 96 Y
IOPIN 432 96 Out
FLAG 368 464 0
SYMBOL nmos4 144 128 R0
SYMATTR InstName M1
SYMATTR Value2 l=0.01u w=40u
SYMBOL nmos4 144 256 R0
SYMATTR InstName M2
SYMATTR Value2 l=0.01u w=40u
SYMBOL memristor_Yakopcic 256 -32 R180
SYMATTR InstName U1
SYMBOL voltage 64 336 R0
WINDOW 3 -268 -201 Left 2
WINDOW 123 0 0 Left 0
WINDOW 39 0 0 Left 0
SYMATTR Value PULSE(1.8 0 0.3m 0.1m 0.1m 1m 2m)
SYMATTR InstName V1
SYMBOL voltage -16 208 R0
WINDOW 3 -188 -105 Left 2
WINDOW 123 0 0 Left 0
WINDOW 39 0 0 Left 0
SYMATTR Value PULSE(1.8 0 0 0.1m 0.1m 2m 4m)
SYMATTR InstName V2
SYMBOL voltage -16 -64 R0
WINDOW 123 0 0 Left 0
WINDOW 39 0 0 Left 0
SYMATTR InstName V3
SYMATTR Value 1.8
SYMBOL cap 352 208 R0
SYMATTR InstName C1
SYMATTR Value 1f
TEXT -208 168 Left 2 !.tran 0 8m 0 1u
