Version 4
SHEET 1 880 680
WIRE 256 64 -64 64
WIRE 256 112 256 64
WIRE -64 144 -64 64
WIRE -64 304 -64 224
WIRE 96 304 -64 304
WIRE 256 304 256 240
WIRE 256 304 96 304
WIRE 96 336 96 304
FLAG 96 336 0
SYMBOL voltage -64 128 R0
WINDOW 3 19 -10 Left 2
WINDOW 123 0 0 Left 0
WINDOW 39 0 0 Left 0
SYMATTR Value SINE(0 0.45 100 0 0 0)
SYMATTR InstName V1
SYMBOL memristor_Yakopcic 320 144 R180
SYMATTR InstName U2
TEXT -48 280 Left 2 !.tran 0 100m 0 100u
