Version 4
SHEET 1 880 680
WIRE 160 48 -16 48
WIRE -16 64 -16 48
WIRE 160 64 160 48
WIRE -16 192 -16 144
WIRE 160 224 160 192
WIRE 304 224 160 224
WIRE 352 224 304 224
WIRE 160 256 160 224
WIRE 304 256 304 224
WIRE 256 304 160 304
WIRE 112 336 -16 336
WIRE -16 352 -16 336
WIRE 160 400 160 352
WIRE 256 400 256 304
WIRE 256 400 160 400
WIRE -16 464 -16 432
WIRE 160 464 160 400
WIRE 304 464 304 320
FLAG 160 464 0
FLAG -16 192 0
FLAG 304 464 0
FLAG -16 464 0
FLAG -16 336 A
IOPIN -16 336 In
FLAG 352 224 Y
IOPIN 352 224 Out
SYMBOL nmos4 112 256 R0
SYMATTR InstName M1
SYMATTR Value2 l=0.01u w=40u
SYMBOL voltage -16 336 R0
WINDOW 3 -236 -104 Left 2
WINDOW 123 0 0 Left 0
WINDOW 39 0 0 Left 0
SYMATTR Value PULSE(0 1.8 0.87m 1p 1p 1m 2m)
SYMATTR InstName V1
SYMBOL voltage -16 48 R0
WINDOW 123 0 0 Left 0
WINDOW 39 0 0 Left 0
SYMATTR InstName V2
SYMATTR Value 1.8
SYMBOL memristor_Yakopcic 224 96 R180
SYMATTR InstName U2
SYMBOL cap 288 256 R0
SYMATTR InstName C1
SYMATTR Value 1f
TEXT -248 264 Left 2 !.tran 0 10m 0 1u
