Version 4
SHEET 1 1228 724
WIRE 112 0 -112 0
WIRE 304 0 112 0
WIRE 112 16 112 0
WIRE 304 16 304 0
WIRE -112 32 -112 0
WIRE -112 144 -112 112
WIRE 112 176 112 144
WIRE 112 176 0 176
WIRE 304 176 304 144
WIRE 384 176 304 176
WIRE 416 176 384 176
WIRE 640 176 544 176
WIRE 928 176 640 176
WIRE 976 176 928 176
WIRE 112 208 112 176
WIRE 304 208 304 176
WIRE 384 208 384 176
WIRE 640 208 640 176
WIRE 928 208 928 176
WIRE 720 256 640 256
WIRE 592 288 544 288
WIRE 928 304 928 272
WIRE 384 320 384 288
WIRE 640 336 640 304
WIRE 720 336 720 256
WIRE 720 336 640 336
WIRE 112 352 112 336
WIRE 112 352 -112 352
WIRE 304 352 304 336
WIRE 304 352 112 352
WIRE -112 368 -112 352
WIRE 640 400 640 336
WIRE 0 448 0 176
WIRE 544 448 544 288
WIRE 544 448 0 448
WIRE 928 448 544 448
WIRE 976 448 928 448
WIRE 0 464 0 448
WIRE -112 480 -112 448
WIRE 928 480 928 448
WIRE 0 576 0 544
WIRE 928 576 928 544
FLAG -112 144 0
FLAG -112 480 0
FLAG -112 0 A
IOPIN -112 0 In
FLAG -112 352 B
IOPIN -112 352 In
FLAG 640 400 0
FLAG 976 176 Y1_XNOR
IOPIN 976 176 Out
FLAG 976 448 Y2_AND
IOPIN 976 448 Out
FLAG 384 320 0
FLAG 928 304 0
FLAG 928 576 0
FLAG 0 576 0
SYMBOL memristor_Yakopcic 48 112 R0
SYMATTR InstName U1
SYMBOL memristor_Yakopcic 176 240 R180
SYMATTR InstName U2
SYMBOL voltage -112 16 R0
WINDOW 3 574 -29 Left 2
WINDOW 123 0 0 Left 0
WINDOW 39 0 0 Left 0
SYMATTR Value PULSE(1.8 0 0 1p 1p 1m 2m)
SYMATTR InstName V1
SYMBOL voltage -112 352 R0
WINDOW 0 44 64 Left 2
WINDOW 3 575 -331 Left 2
WINDOW 123 0 0 Left 0
WINDOW 39 0 0 Left 0
SYMATTR InstName V2
SYMATTR Value PULSE(1.8 0 0 1p 1p 2m 4m)
SYMBOL memristor_Yakopcic 368 48 R180
SYMATTR InstName U3
SYMBOL memristor_Yakopcic 240 304 R0
SYMATTR InstName U4
SYMBOL memristor_Yakopcic 448 112 R90
SYMATTR InstName U5
SYMBOL nmos4 592 208 R0
SYMATTR InstName M1
SYMATTR Value2 l=0.01u w=40u
SYMBOL res 368 192 R0
SYMATTR InstName R3
SYMATTR Value 1e15
SYMBOL cap 912 208 R0
SYMATTR InstName C1
SYMATTR Value 1e-15
SYMBOL cap 912 480 R0
SYMATTR InstName C2
SYMATTR Value 1e-15
SYMBOL res -16 448 R0
SYMATTR InstName R2
SYMATTR Value 1e15
TEXT 464 56 Left 2 !.tran 0 10m 0 1u
