Version 4
SHEET 1 880 680
WIRE 112 48 -32 48
WIRE 496 48 352 48
WIRE -32 64 -32 48
WIRE 496 64 496 48
WIRE -32 176 -32 144
WIRE 496 176 496 144
WIRE 112 224 112 176
WIRE 224 224 112 224
WIRE 352 224 352 176
WIRE 352 224 224 224
WIRE 224 288 224 224
WIRE 224 400 224 368
FLAG 224 400 0
FLAG -32 176 0
FLAG 496 176 0
FLAG 352 224 Y
IOPIN 352 224 Out
FLAG -32 48 A
IOPIN -32 48 In
FLAG 496 48 B
IOPIN 496 48 In
SYMBOL memristor_Yakopcic 176 80 R180
SYMATTR InstName U1
SYMBOL memristor_Yakopcic 416 144 M0
SYMATTR InstName U2
SYMBOL res 208 272 R0
SYMATTR InstName R1
SYMATTR Value 1e12
SYMBOL voltage -32 48 R0
WINDOW 3 -123 189 Left 2
WINDOW 123 0 0 Left 0
WINDOW 39 0 0 Left 0
SYMATTR InstName V1
SYMATTR Value PULSE(0 1.8 0 1p 1p 1m 2m)
SYMBOL voltage 496 48 R0
WINDOW 3 -652 217 Left 2
WINDOW 123 0 0 Left 0
WINDOW 39 0 0 Left 0
SYMATTR InstName V2
SYMATTR Value PULSE(0 1.8 0 1p 1p 2m 4m)
TEXT -158 424 Left 2 !.tran 0 4m 0 100u
